L24/1726524/_ATERRAMENTO.dss
! Aterramento do neutro (no 4) dos secundarios de BT
! Reactor de 0.5 ohm entre o no 4 e a terra (no 0).
New Reactor.NEUTRO_node_1026433559 phases=1 bus1=node_1026433559.4 bus2=node_1026433559.0 R=0.5 X=0
New Reactor.NEUTRO_node_1030255178 phases=1 bus1=node_1030255178.4 bus2=node_1030255178.0 R=0.5 X=0
New Reactor.NEUTRO_node_1060725385 phases=1 bus1=node_1060725385.4 bus2=node_1060725385.0 R=0.5 X=0
New Reactor.NEUTRO_node_1070090610 phases=1 bus1=node_1070090610.4 bus2=node_1070090610.0 R=0.5 X=0
New Reactor.NEUTRO_node_1078631332 phases=1 bus1=node_1078631332.4 bus2=node_1078631332.0 R=0.5 X=0
New Reactor.NEUTRO_node_1091139864 phases=1 bus1=node_1091139864.4 bus2=node_1091139864.0 R=0.5 X=0
New Reactor.NEUTRO_node_1093879426 phases=1 bus1=node_1093879426.4 bus2=node_1093879426.0 R=0.5 X=0
New Reactor.NEUTRO_node_1104464261 phases=1 bus1=node_1104464261.4 bus2=node_1104464261.0 R=0.5 X=0
New Reactor.NEUTRO_node_1110724716 phases=1 bus1=node_1110724716.4 bus2=node_1110724716.0 R=0.5 X=0
New Reactor.NEUTRO_node_1110986735 phases=1 bus1=node_1110986735.4 bus2=node_1110986735.0 R=0.5 X=0
New Reactor.NEUTRO_node_1133255375 phases=1 bus1=node_1133255375.4 bus2=node_1133255375.0 R=0.5 X=0
New Reactor.NEUTRO_node_1163974642 phases=1 bus1=node_1163974642.4 bus2=node_1163974642.0 R=0.5 X=0
New Reactor.NEUTRO_node_1164846392 phases=1 bus1=node_1164846392.4 bus2=node_1164846392.0 R=0.5 X=0
New Reactor.NEUTRO_node_1164846423 phases=1 bus1=node_1164846423.4 bus2=node_1164846423.0 R=0.5 X=0
New Reactor.NEUTRO_node_1173850821 phases=1 bus1=node_1173850821.4 bus2=node_1173850821.0 R=0.5 X=0
New Reactor.NEUTRO_node_1190065177 phases=1 bus1=node_1190065177.4 bus2=node_1190065177.0 R=0.5 X=0
New Reactor.NEUTRO_node_1195527860 phases=1 bus1=node_1195527860.4 bus2=node_1195527860.0 R=0.5 X=0
New Reactor.NEUTRO_node_1195528117 phases=1 bus1=node_1195528117.4 bus2=node_1195528117.0 R=0.5 X=0
New Reactor.NEUTRO_node_1195528708 phases=1 bus1=node_1195528708.4 bus2=node_1195528708.0 R=0.5 X=0
New Reactor.NEUTRO_node_1195528947 phases=1 bus1=node_1195528947.4 bus2=node_1195528947.0 R=0.5 X=0
New Reactor.NEUTRO_node_1195529409 phases=1 bus1=node_1195529409.4 bus2=node_1195529409.0 R=0.5 X=0
New Reactor.NEUTRO_node_1197278848 phases=1 bus1=node_1197278848.4 bus2=node_1197278848.0 R=0.5 X=0
New Reactor.NEUTRO_node_1199468869 phases=1 bus1=node_1199468869.4 bus2=node_1199468869.0 R=0.5 X=0
New Reactor.NEUTRO_node_1199468956 phases=1 bus1=node_1199468956.4 bus2=node_1199468956.0 R=0.5 X=0
New Reactor.NEUTRO_node_1212174938 phases=1 bus1=node_1212174938.4 bus2=node_1212174938.0 R=0.5 X=0
New Reactor.NEUTRO_node_1229093408 phases=1 bus1=node_1229093408.4 bus2=node_1229093408.0 R=0.5 X=0
New Reactor.NEUTRO_node_1229093548 phases=1 bus1=node_1229093548.4 bus2=node_1229093548.0 R=0.5 X=0
New Reactor.NEUTRO_node_1233846566 phases=1 bus1=node_1233846566.4 bus2=node_1233846566.0 R=0.5 X=0
New Reactor.NEUTRO_node_1259920042 phases=1 bus1=node_1259920042.4 bus2=node_1259920042.0 R=0.5 X=0
New Reactor.NEUTRO_node_1265949004 phases=1 bus1=node_1265949004.4 bus2=node_1265949004.0 R=0.5 X=0
New Reactor.NEUTRO_node_1265949280 phases=1 bus1=node_1265949280.4 bus2=node_1265949280.0 R=0.5 X=0
New Reactor.NEUTRO_node_1270139484 phases=1 bus1=node_1270139484.4 bus2=node_1270139484.0 R=0.5 X=0
New Reactor.NEUTRO_node_1276404595 phases=1 bus1=node_1276404595.4 bus2=node_1276404595.0 R=0.5 X=0
New Reactor.NEUTRO_node_1300006084 phases=1 bus1=node_1300006084.4 bus2=node_1300006084.0 R=0.5 X=0
New Reactor.NEUTRO_node_1312276591 phases=1 bus1=node_1312276591.4 bus2=node_1312276591.0 R=0.5 X=0
New Reactor.NEUTRO_node_1318537789 phases=1 bus1=node_1318537789.4 bus2=node_1318537789.0 R=0.5 X=0
New Reactor.NEUTRO_node_1320967526 phases=1 bus1=node_1320967526.4 bus2=node_1320967526.0 R=0.5 X=0
New Reactor.NEUTRO_node_1321727717 phases=1 bus1=node_1321727717.4 bus2=node_1321727717.0 R=0.5 X=0
New Reactor.NEUTRO_node_1326391748 phases=1 bus1=node_1326391748.4 bus2=node_1326391748.0 R=0.5 X=0
New Reactor.NEUTRO_node_1349333749 phases=1 bus1=node_1349333749.4 bus2=node_1349333749.0 R=0.5 X=0
New Reactor.NEUTRO_node_1355061937 phases=1 bus1=node_1355061937.4 bus2=node_1355061937.0 R=0.5 X=0
New Reactor.NEUTRO_node_1357505185 phases=1 bus1=node_1357505185.4 bus2=node_1357505185.0 R=0.5 X=0
New Reactor.NEUTRO_node_1382796951 phases=1 bus1=node_1382796951.4 bus2=node_1382796951.0 R=0.5 X=0
New Reactor.NEUTRO_node_1409604286 phases=1 bus1=node_1409604286.4 bus2=node_1409604286.0 R=0.5 X=0
New Reactor.NEUTRO_node_1423946680 phases=1 bus1=node_1423946680.4 bus2=node_1423946680.0 R=0.5 X=0
New Reactor.NEUTRO_node_1423947133 phases=1 bus1=node_1423947133.4 bus2=node_1423947133.0 R=0.5 X=0
New Reactor.NEUTRO_node_1423947170 phases=1 bus1=node_1423947170.4 bus2=node_1423947170.0 R=0.5 X=0
New Reactor.NEUTRO_node_1423947393 phases=1 bus1=node_1423947393.4 bus2=node_1423947393.0 R=0.5 X=0
New Reactor.NEUTRO_node_1426316763 phases=1 bus1=node_1426316763.4 bus2=node_1426316763.0 R=0.5 X=0
New Reactor.NEUTRO_node_1434986172 phases=1 bus1=node_1434986172.4 bus2=node_1434986172.0 R=0.5 X=0
New Reactor.NEUTRO_node_1435425181 phases=1 bus1=node_1435425181.4 bus2=node_1435425181.0 R=0.5 X=0
New Reactor.NEUTRO_node_1435425381 phases=1 bus1=node_1435425381.4 bus2=node_1435425381.0 R=0.5 X=0
New Reactor.NEUTRO_node_1435426572 phases=1 bus1=node_1435426572.4 bus2=node_1435426572.0 R=0.5 X=0
New Reactor.NEUTRO_node_1488536592 phases=1 bus1=node_1488536592.4 bus2=node_1488536592.0 R=0.5 X=0
New Reactor.NEUTRO_node_1514721396 phases=1 bus1=node_1514721396.4 bus2=node_1514721396.0 R=0.5 X=0
New Reactor.NEUTRO_node_1520595625 phases=1 bus1=node_1520595625.4 bus2=node_1520595625.0 R=0.5 X=0
New Reactor.NEUTRO_node_1531038614 phases=1 bus1=node_1531038614.4 bus2=node_1531038614.0 R=0.5 X=0
New Reactor.NEUTRO_node_1555719386 phases=1 bus1=node_1555719386.4 bus2=node_1555719386.0 R=0.5 X=0
New Reactor.NEUTRO_node_1555719516 phases=1 bus1=node_1555719516.4 bus2=node_1555719516.0 R=0.5 X=0
New Reactor.NEUTRO_node_1555719908 phases=1 bus1=node_1555719908.4 bus2=node_1555719908.0 R=0.5 X=0
New Reactor.NEUTRO_node_1555720157 phases=1 bus1=node_1555720157.4 bus2=node_1555720157.0 R=0.5 X=0
New Reactor.NEUTRO_node_1555720238 phases=1 bus1=node_1555720238.4 bus2=node_1555720238.0 R=0.5 X=0
New Reactor.NEUTRO_node_1555720304 phases=1 bus1=node_1555720304.4 bus2=node_1555720304.0 R=0.5 X=0
New Reactor.NEUTRO_node_1555720452 phases=1 bus1=node_1555720452.4 bus2=node_1555720452.0 R=0.5 X=0
New Reactor.NEUTRO_node_1578079410 phases=1 bus1=node_1578079410.4 bus2=node_1578079410.0 R=0.5 X=0
New Reactor.NEUTRO_node_1602168714 phases=1 bus1=node_1602168714.4 bus2=node_1602168714.0 R=0.5 X=0
New Reactor.NEUTRO_node_1608352103 phases=1 bus1=node_1608352103.4 bus2=node_1608352103.0 R=0.5 X=0
New Reactor.NEUTRO_node_1615819374 phases=1 bus1=node_1615819374.4 bus2=node_1615819374.0 R=0.5 X=0
New Reactor.NEUTRO_node_1619297577 phases=1 bus1=node_1619297577.4 bus2=node_1619297577.0 R=0.5 X=0
New Reactor.NEUTRO_node_1620830751 phases=1 bus1=node_1620830751.4 bus2=node_1620830751.0 R=0.5 X=0
New Reactor.NEUTRO_node_1620830765 phases=1 bus1=node_1620830765.4 bus2=node_1620830765.0 R=0.5 X=0
New Reactor.NEUTRO_node_1620942173 phases=1 bus1=node_1620942173.4 bus2=node_1620942173.0 R=0.5 X=0
New Reactor.NEUTRO_node_1630569277 phases=1 bus1=node_1630569277.4 bus2=node_1630569277.0 R=0.5 X=0
New Reactor.NEUTRO_node_1630599290 phases=1 bus1=node_1630599290.4 bus2=node_1630599290.0 R=0.5 X=0
New Reactor.NEUTRO_node_1632162341 phases=1 bus1=node_1632162341.4 bus2=node_1632162341.0 R=0.5 X=0
New Reactor.NEUTRO_node_1632561648 phases=1 bus1=node_1632561648.4 bus2=node_1632561648.0 R=0.5 X=0
New Reactor.NEUTRO_node_1656298883 phases=1 bus1=node_1656298883.4 bus2=node_1656298883.0 R=0.5 X=0
New Reactor.NEUTRO_node_1659296148 phases=1 bus1=node_1659296148.4 bus2=node_1659296148.0 R=0.5 X=0
New Reactor.NEUTRO_node_1662070075 phases=1 bus1=node_1662070075.4 bus2=node_1662070075.0 R=0.5 X=0
New Reactor.NEUTRO_node_1669580772 phases=1 bus1=node_1669580772.4 bus2=node_1669580772.0 R=0.5 X=0
New Reactor.NEUTRO_node_1669580815 phases=1 bus1=node_1669580815.4 bus2=node_1669580815.0 R=0.5 X=0
New Reactor.NEUTRO_node_1671151967 phases=1 bus1=node_1671151967.4 bus2=node_1671151967.0 R=0.5 X=0
New Reactor.NEUTRO_node_1672251187 phases=1 bus1=node_1672251187.4 bus2=node_1672251187.0 R=0.5 X=0
New Reactor.NEUTRO_node_1672951160 phases=1 bus1=node_1672951160.4 bus2=node_1672951160.0 R=0.5 X=0
New Reactor.NEUTRO_node_1687451870 phases=1 bus1=node_1687451870.4 bus2=node_1687451870.0 R=0.5 X=0
New Reactor.NEUTRO_node_1718683890 phases=1 bus1=node_1718683890.4 bus2=node_1718683890.0 R=0.5 X=0
New Reactor.NEUTRO_node_1728270621 phases=1 bus1=node_1728270621.4 bus2=node_1728270621.0 R=0.5 X=0
New Reactor.NEUTRO_node_1736055715 phases=1 bus1=node_1736055715.4 bus2=node_1736055715.0 R=0.5 X=0
New Reactor.NEUTRO_node_1750848535 phases=1 bus1=node_1750848535.4 bus2=node_1750848535.0 R=0.5 X=0
New Reactor.NEUTRO_node_1751649359 phases=1 bus1=node_1751649359.4 bus2=node_1751649359.0 R=0.5 X=0
New Reactor.NEUTRO_node_1751650047 phases=1 bus1=node_1751650047.4 bus2=node_1751650047.0 R=0.5 X=0
New Reactor.NEUTRO_node_1751650134 phases=1 bus1=node_1751650134.4 bus2=node_1751650134.0 R=0.5 X=0
New Reactor.NEUTRO_node_1751650291 phases=1 bus1=node_1751650291.4 bus2=node_1751650291.0 R=0.5 X=0
New Reactor.NEUTRO_node_1751650491 phases=1 bus1=node_1751650491.4 bus2=node_1751650491.0 R=0.5 X=0
New Reactor.NEUTRO_node_1751650540 phases=1 bus1=node_1751650540.4 bus2=node_1751650540.0 R=0.5 X=0
New Reactor.NEUTRO_node_1751650610 phases=1 bus1=node_1751650610.4 bus2=node_1751650610.0 R=0.5 X=0
New Reactor.NEUTRO_node_1751650686 phases=1 bus1=node_1751650686.4 bus2=node_1751650686.0 R=0.5 X=0
New Reactor.NEUTRO_node_1751650795 phases=1 bus1=node_1751650795.4 bus2=node_1751650795.0 R=0.5 X=0
New Reactor.NEUTRO_node_1751651065 phases=1 bus1=node_1751651065.4 bus2=node_1751651065.0 R=0.5 X=0
New Reactor.NEUTRO_node_1821678223 phases=1 bus1=node_1821678223.4 bus2=node_1821678223.0 R=0.5 X=0
New Reactor.NEUTRO_node_1823580231 phases=1 bus1=node_1823580231.4 bus2=node_1823580231.0 R=0.5 X=0
New Reactor.NEUTRO_node_1860452919 phases=1 bus1=node_1860452919.4 bus2=node_1860452919.0 R=0.5 X=0
New Reactor.NEUTRO_node_1861998660 phases=1 bus1=node_1861998660.4 bus2=node_1861998660.0 R=0.5 X=0
New Reactor.NEUTRO_node_1865906216 phases=1 bus1=node_1865906216.4 bus2=node_1865906216.0 R=0.5 X=0
New Reactor.NEUTRO_node_1866237108 phases=1 bus1=node_1866237108.4 bus2=node_1866237108.0 R=0.5 X=0
New Reactor.NEUTRO_node_1872124404 phases=1 bus1=node_1872124404.4 bus2=node_1872124404.0 R=0.5 X=0
New Reactor.NEUTRO_node_1885306532 phases=1 bus1=node_1885306532.4 bus2=node_1885306532.0 R=0.5 X=0
New Reactor.NEUTRO_node_1900743637 phases=1 bus1=node_1900743637.4 bus2=node_1900743637.0 R=0.5 X=0
New Reactor.NEUTRO_node_1912916937 phases=1 bus1=node_1912916937.4 bus2=node_1912916937.0 R=0.5 X=0
New Reactor.NEUTRO_node_1913702802 phases=1 bus1=node_1913702802.4 bus2=node_1913702802.0 R=0.5 X=0
New Reactor.NEUTRO_node_1914673291 phases=1 bus1=node_1914673291.4 bus2=node_1914673291.0 R=0.5 X=0
New Reactor.NEUTRO_node_1917919457 phases=1 bus1=node_1917919457.4 bus2=node_1917919457.0 R=0.5 X=0
New Reactor.NEUTRO_node_1918653753 phases=1 bus1=node_1918653753.4 bus2=node_1918653753.0 R=0.5 X=0
New Reactor.NEUTRO_node_1928517010 phases=1 bus1=node_1928517010.4 bus2=node_1928517010.0 R=0.5 X=0
New Reactor.NEUTRO_node_1942889161 phases=1 bus1=node_1942889161.4 bus2=node_1942889161.0 R=0.5 X=0
New Reactor.NEUTRO_node_1949214317 phases=1 bus1=node_1949214317.4 bus2=node_1949214317.0 R=0.5 X=0
New Reactor.NEUTRO_node_1949222784 phases=1 bus1=node_1949222784.4 bus2=node_1949222784.0 R=0.5 X=0
New Reactor.NEUTRO_node_1951459907 phases=1 bus1=node_1951459907.4 bus2=node_1951459907.0 R=0.5 X=0
New Reactor.NEUTRO_node_1966896977 phases=1 bus1=node_1966896977.4 bus2=node_1966896977.0 R=0.5 X=0
New Reactor.NEUTRO_node_1972586425 phases=1 bus1=node_1972586425.4 bus2=node_1972586425.0 R=0.5 X=0
New Reactor.NEUTRO_node_1976317829 phases=1 bus1=node_1976317829.4 bus2=node_1976317829.0 R=0.5 X=0
New Reactor.NEUTRO_node_1986877554 phases=1 bus1=node_1986877554.4 bus2=node_1986877554.0 R=0.5 X=0
New Reactor.NEUTRO_node_1986878064 phases=1 bus1=node_1986878064.4 bus2=node_1986878064.0 R=0.5 X=0
New Reactor.NEUTRO_node_1986878320 phases=1 bus1=node_1986878320.4 bus2=node_1986878320.0 R=0.5 X=0
New Reactor.NEUTRO_node_1986878974 phases=1 bus1=node_1986878974.4 bus2=node_1986878974.0 R=0.5 X=0
New Reactor.NEUTRO_node_1986879027 phases=1 bus1=node_1986879027.4 bus2=node_1986879027.0 R=0.5 X=0
New Reactor.NEUTRO_node_1986879110 phases=1 bus1=node_1986879110.4 bus2=node_1986879110.0 R=0.5 X=0
New Reactor.NEUTRO_node_1986879284 phases=1 bus1=node_1986879284.4 bus2=node_1986879284.0 R=0.5 X=0
New Reactor.NEUTRO_node_1986879823 phases=1 bus1=node_1986879823.4 bus2=node_1986879823.0 R=0.5 X=0
New Reactor.NEUTRO_node_1986880024 phases=1 bus1=node_1986880024.4 bus2=node_1986880024.0 R=0.5 X=0
New Reactor.NEUTRO_node_1986880125 phases=1 bus1=node_1986880125.4 bus2=node_1986880125.0 R=0.5 X=0
New Reactor.NEUTRO_node_1999338174 phases=1 bus1=node_1999338174.4 bus2=node_1999338174.0 R=0.5 X=0
New Reactor.NEUTRO_node_2002318513 phases=1 bus1=node_2002318513.4 bus2=node_2002318513.0 R=0.5 X=0
New Reactor.NEUTRO_node_2002319179 phases=1 bus1=node_2002319179.4 bus2=node_2002319179.0 R=0.5 X=0
New Reactor.NEUTRO_node_2007303365 phases=1 bus1=node_2007303365.4 bus2=node_2007303365.0 R=0.5 X=0
New Reactor.NEUTRO_node_2019579965 phases=1 bus1=node_2019579965.4 bus2=node_2019579965.0 R=0.5 X=0
New Reactor.NEUTRO_node_2046980160 phases=1 bus1=node_2046980160.4 bus2=node_2046980160.0 R=0.5 X=0
New Reactor.NEUTRO_node_2046980252 phases=1 bus1=node_2046980252.4 bus2=node_2046980252.0 R=0.5 X=0
New Reactor.NEUTRO_node_2046980511 phases=1 bus1=node_2046980511.4 bus2=node_2046980511.0 R=0.5 X=0
New Reactor.NEUTRO_node_2046980581 phases=1 bus1=node_2046980581.4 bus2=node_2046980581.0 R=0.5 X=0
New Reactor.NEUTRO_node_2046980648 phases=1 bus1=node_2046980648.4 bus2=node_2046980648.0 R=0.5 X=0
New Reactor.NEUTRO_node_2046980798 phases=1 bus1=node_2046980798.4 bus2=node_2046980798.0 R=0.5 X=0
New Reactor.NEUTRO_node_2110235901 phases=1 bus1=node_2110235901.4 bus2=node_2110235901.0 R=0.5 X=0
New Reactor.NEUTRO_node_2116985777 phases=1 bus1=node_2116985777.4 bus2=node_2116985777.0 R=0.5 X=0
New Reactor.NEUTRO_node_2126809794 phases=1 bus1=node_2126809794.4 bus2=node_2126809794.0 R=0.5 X=0
New Reactor.NEUTRO_node_2140379659 phases=1 bus1=node_2140379659.4 bus2=node_2140379659.0 R=0.5 X=0
New Reactor.NEUTRO_node_2177689266 phases=1 bus1=node_2177689266.4 bus2=node_2177689266.0 R=0.5 X=0
New Reactor.NEUTRO_node_2183748425 phases=1 bus1=node_2183748425.4 bus2=node_2183748425.0 R=0.5 X=0
New Reactor.NEUTRO_node_2203844014 phases=1 bus1=node_2203844014.4 bus2=node_2203844014.0 R=0.5 X=0
New Reactor.NEUTRO_node_2216863622 phases=1 bus1=node_2216863622.4 bus2=node_2216863622.0 R=0.5 X=0
New Reactor.NEUTRO_node_2232296051 phases=1 bus1=node_2232296051.4 bus2=node_2232296051.0 R=0.5 X=0
New Reactor.NEUTRO_node_2254384401 phases=1 bus1=node_2254384401.4 bus2=node_2254384401.0 R=0.5 X=0
New Reactor.NEUTRO_node_2283656556 phases=1 bus1=node_2283656556.4 bus2=node_2283656556.0 R=0.5 X=0
New Reactor.NEUTRO_node_2291291309 phases=1 bus1=node_2291291309.4 bus2=node_2291291309.0 R=0.5 X=0
New Reactor.NEUTRO_node_2302159454 phases=1 bus1=node_2302159454.4 bus2=node_2302159454.0 R=0.5 X=0
New Reactor.NEUTRO_node_2337061192 phases=1 bus1=node_2337061192.4 bus2=node_2337061192.0 R=0.5 X=0
New Reactor.NEUTRO_node_2340023964 phases=1 bus1=node_2340023964.4 bus2=node_2340023964.0 R=0.5 X=0
New Reactor.NEUTRO_node_2373654603 phases=1 bus1=node_2373654603.4 bus2=node_2373654603.0 R=0.5 X=0
New Reactor.NEUTRO_node_2381396661 phases=1 bus1=node_2381396661.4 bus2=node_2381396661.0 R=0.5 X=0
New Reactor.NEUTRO_node_2409072118 phases=1 bus1=node_2409072118.4 bus2=node_2409072118.0 R=0.5 X=0
New Reactor.NEUTRO_node_2409072304 phases=1 bus1=node_2409072304.4 bus2=node_2409072304.0 R=0.5 X=0
New Reactor.NEUTRO_node_2409072442 phases=1 bus1=node_2409072442.4 bus2=node_2409072442.0 R=0.5 X=0
New Reactor.NEUTRO_node_2409072606 phases=1 bus1=node_2409072606.4 bus2=node_2409072606.0 R=0.5 X=0
New Reactor.NEUTRO_node_2409072662 phases=1 bus1=node_2409072662.4 bus2=node_2409072662.0 R=0.5 X=0
New Reactor.NEUTRO_node_2409072741 phases=1 bus1=node_2409072741.4 bus2=node_2409072741.0 R=0.5 X=0
New Reactor.NEUTRO_node_2409072820 phases=1 bus1=node_2409072820.4 bus2=node_2409072820.0 R=0.5 X=0
New Reactor.NEUTRO_node_2467079124 phases=1 bus1=node_2467079124.4 bus2=node_2467079124.0 R=0.5 X=0
New Reactor.NEUTRO_node_2472571143 phases=1 bus1=node_2472571143.4 bus2=node_2472571143.0 R=0.5 X=0
New Reactor.NEUTRO_node_2475426759 phases=1 bus1=node_2475426759.4 bus2=node_2475426759.0 R=0.5 X=0
New Reactor.NEUTRO_node_2477114239 phases=1 bus1=node_2477114239.4 bus2=node_2477114239.0 R=0.5 X=0
New Reactor.NEUTRO_node_2483874114 phases=1 bus1=node_2483874114.4 bus2=node_2483874114.0 R=0.5 X=0
New Reactor.NEUTRO_node_2487090465 phases=1 bus1=node_2487090465.4 bus2=node_2487090465.0 R=0.5 X=0
New Reactor.NEUTRO_node_2487201606 phases=1 bus1=node_2487201606.4 bus2=node_2487201606.0 R=0.5 X=0
New Reactor.NEUTRO_node_2490674676 phases=1 bus1=node_2490674676.4 bus2=node_2490674676.0 R=0.5 X=0
New Reactor.NEUTRO_node_2496982766 phases=1 bus1=node_2496982766.4 bus2=node_2496982766.0 R=0.5 X=0
New Reactor.NEUTRO_node_2512969061 phases=1 bus1=node_2512969061.4 bus2=node_2512969061.0 R=0.5 X=0
New Reactor.NEUTRO_node_2513407191 phases=1 bus1=node_2513407191.4 bus2=node_2513407191.0 R=0.5 X=0
New Reactor.NEUTRO_node_2515708648 phases=1 bus1=node_2515708648.4 bus2=node_2515708648.0 R=0.5 X=0
New Reactor.NEUTRO_node_2525213623 phases=1 bus1=node_2525213623.4 bus2=node_2525213623.0 R=0.5 X=0
New Reactor.NEUTRO_node_2528762508 phases=1 bus1=node_2528762508.4 bus2=node_2528762508.0 R=0.5 X=0
New Reactor.NEUTRO_node_2529084805 phases=1 bus1=node_2529084805.4 bus2=node_2529084805.0 R=0.5 X=0
New Reactor.NEUTRO_node_2540347749 phases=1 bus1=node_2540347749.4 bus2=node_2540347749.0 R=0.5 X=0
New Reactor.NEUTRO_node_2543800059 phases=1 bus1=node_2543800059.4 bus2=node_2543800059.0 R=0.5 X=0
New Reactor.NEUTRO_node_2545015201 phases=1 bus1=node_2545015201.4 bus2=node_2545015201.0 R=0.5 X=0
New Reactor.NEUTRO_node_2550867976 phases=1 bus1=node_2550867976.4 bus2=node_2550867976.0 R=0.5 X=0
New Reactor.NEUTRO_node_2571418976 phases=1 bus1=node_2571418976.4 bus2=node_2571418976.0 R=0.5 X=0
New Reactor.NEUTRO_node_2589299309 phases=1 bus1=node_2589299309.4 bus2=node_2589299309.0 R=0.5 X=0
New Reactor.NEUTRO_node_2589888738 phases=1 bus1=node_2589888738.4 bus2=node_2589888738.0 R=0.5 X=0
New Reactor.NEUTRO_node_2621453239 phases=1 bus1=node_2621453239.4 bus2=node_2621453239.0 R=0.5 X=0
New Reactor.NEUTRO_node_2621453832 phases=1 bus1=node_2621453832.4 bus2=node_2621453832.0 R=0.5 X=0
New Reactor.NEUTRO_node_2621454337 phases=1 bus1=node_2621454337.4 bus2=node_2621454337.0 R=0.5 X=0
New Reactor.NEUTRO_node_2621454765 phases=1 bus1=node_2621454765.4 bus2=node_2621454765.0 R=0.5 X=0
New Reactor.NEUTRO_node_2621456003 phases=1 bus1=node_2621456003.4 bus2=node_2621456003.0 R=0.5 X=0
New Reactor.NEUTRO_node_2634643879 phases=1 bus1=node_2634643879.4 bus2=node_2634643879.0 R=0.5 X=0
New Reactor.NEUTRO_node_2724258479 phases=1 bus1=node_2724258479.4 bus2=node_2724258479.0 R=0.5 X=0
New Reactor.NEUTRO_node_2725255942 phases=1 bus1=node_2725255942.4 bus2=node_2725255942.0 R=0.5 X=0
New Reactor.NEUTRO_node_2727918169 phases=1 bus1=node_2727918169.4 bus2=node_2727918169.0 R=0.5 X=0
New Reactor.NEUTRO_node_2733723722 phases=1 bus1=node_2733723722.4 bus2=node_2733723722.0 R=0.5 X=0
New Reactor.NEUTRO_node_2736764133 phases=1 bus1=node_2736764133.4 bus2=node_2736764133.0 R=0.5 X=0
New Reactor.NEUTRO_node_2736764236 phases=1 bus1=node_2736764236.4 bus2=node_2736764236.0 R=0.5 X=0
...
